L24/1726518/_ATERRAMENTO.dss
! Aterramento do neutro (no 4) dos secundarios de BT
! Reactor de 0.5 ohm entre o no 4 e a terra (no 0).
New Reactor.NEUTRO_node_1020516652 phases=1 bus1=node_1020516652.4 bus2=node_1020516652.0 R=0.5 X=0
New Reactor.NEUTRO_node_1020516789 phases=1 bus1=node_1020516789.4 bus2=node_1020516789.0 R=0.5 X=0
New Reactor.NEUTRO_node_1021126133 phases=1 bus1=node_1021126133.4 bus2=node_1021126133.0 R=0.5 X=0
New Reactor.NEUTRO_node_1021560249 phases=1 bus1=node_1021560249.4 bus2=node_1021560249.0 R=0.5 X=0
New Reactor.NEUTRO_node_1028447395 phases=1 bus1=node_1028447395.4 bus2=node_1028447395.0 R=0.5 X=0
New Reactor.NEUTRO_node_1031552037 phases=1 bus1=node_1031552037.4 bus2=node_1031552037.0 R=0.5 X=0
New Reactor.NEUTRO_node_1033187944 phases=1 bus1=node_1033187944.4 bus2=node_1033187944.0 R=0.5 X=0
New Reactor.NEUTRO_node_1033514537 phases=1 bus1=node_1033514537.4 bus2=node_1033514537.0 R=0.5 X=0
New Reactor.NEUTRO_node_1035506729 phases=1 bus1=node_1035506729.4 bus2=node_1035506729.0 R=0.5 X=0
New Reactor.NEUTRO_node_1035545432 phases=1 bus1=node_1035545432.4 bus2=node_1035545432.0 R=0.5 X=0
New Reactor.NEUTRO_node_1035614234 phases=1 bus1=node_1035614234.4 bus2=node_1035614234.0 R=0.5 X=0
New Reactor.NEUTRO_node_1035893286 phases=1 bus1=node_1035893286.4 bus2=node_1035893286.0 R=0.5 X=0
New Reactor.NEUTRO_node_1036017818 phases=1 bus1=node_1036017818.4 bus2=node_1036017818.0 R=0.5 X=0
New Reactor.NEUTRO_node_1036339773 phases=1 bus1=node_1036339773.4 bus2=node_1036339773.0 R=0.5 X=0
New Reactor.NEUTRO_node_1036485942 phases=1 bus1=node_1036485942.4 bus2=node_1036485942.0 R=0.5 X=0
New Reactor.NEUTRO_node_1036859551 phases=1 bus1=node_1036859551.4 bus2=node_1036859551.0 R=0.5 X=0
New Reactor.NEUTRO_node_1038508356 phases=1 bus1=node_1038508356.4 bus2=node_1038508356.0 R=0.5 X=0
New Reactor.NEUTRO_node_1038533961 phases=1 bus1=node_1038533961.4 bus2=node_1038533961.0 R=0.5 X=0
New Reactor.NEUTRO_node_1039156714 phases=1 bus1=node_1039156714.4 bus2=node_1039156714.0 R=0.5 X=0
New Reactor.NEUTRO_node_1040505033 phases=1 bus1=node_1040505033.4 bus2=node_1040505033.0 R=0.5 X=0
New Reactor.NEUTRO_node_1040908751 phases=1 bus1=node_1040908751.4 bus2=node_1040908751.0 R=0.5 X=0
New Reactor.NEUTRO_node_1041363910 phases=1 bus1=node_1041363910.4 bus2=node_1041363910.0 R=0.5 X=0
New Reactor.NEUTRO_node_1041685847 phases=1 bus1=node_1041685847.4 bus2=node_1041685847.0 R=0.5 X=0
New Reactor.NEUTRO_node_1042317026 phases=1 bus1=node_1042317026.4 bus2=node_1042317026.0 R=0.5 X=0
New Reactor.NEUTRO_node_1042501682 phases=1 bus1=node_1042501682.4 bus2=node_1042501682.0 R=0.5 X=0
New Reactor.NEUTRO_node_1042501848 phases=1 bus1=node_1042501848.4 bus2=node_1042501848.0 R=0.5 X=0
New Reactor.NEUTRO_node_1042815227 phases=1 bus1=node_1042815227.4 bus2=node_1042815227.0 R=0.5 X=0
New Reactor.NEUTRO_node_1043098513 phases=1 bus1=node_1043098513.4 bus2=node_1043098513.0 R=0.5 X=0
New Reactor.NEUTRO_node_1043111467 phases=1 bus1=node_1043111467.4 bus2=node_1043111467.0 R=0.5 X=0
New Reactor.NEUTRO_node_1043364775w phases=1 bus1=node_1043364775w.4 bus2=node_1043364775w.0 R=0.5 X=0
New Reactor.NEUTRO_node_1043394938 phases=1 bus1=node_1043394938.4 bus2=node_1043394938.0 R=0.5 X=0
New Reactor.NEUTRO_node_1043403483 phases=1 bus1=node_1043403483.4 bus2=node_1043403483.0 R=0.5 X=0
New Reactor.NEUTRO_node_1044395355 phases=1 bus1=node_1044395355.4 bus2=node_1044395355.0 R=0.5 X=0
New Reactor.NEUTRO_node_1044433945 phases=1 bus1=node_1044433945.4 bus2=node_1044433945.0 R=0.5 X=0
New Reactor.NEUTRO_node_1044627284 phases=1 bus1=node_1044627284.4 bus2=node_1044627284.0 R=0.5 X=0
New Reactor.NEUTRO_node_1044944906 phases=1 bus1=node_1044944906.4 bus2=node_1044944906.0 R=0.5 X=0
New Reactor.NEUTRO_node_1045370168 phases=1 bus1=node_1045370168.4 bus2=node_1045370168.0 R=0.5 X=0
New Reactor.NEUTRO_node_1045400124 phases=1 bus1=node_1045400124.4 bus2=node_1045400124.0 R=0.5 X=0
New Reactor.NEUTRO_node_1046288949 phases=1 bus1=node_1046288949.4 bus2=node_1046288949.0 R=0.5 X=0
New Reactor.NEUTRO_node_1046533726 phases=1 bus1=node_1046533726.4 bus2=node_1046533726.0 R=0.5 X=0
New Reactor.NEUTRO_node_1046911617 phases=1 bus1=node_1046911617.4 bus2=node_1046911617.0 R=0.5 X=0
New Reactor.NEUTRO_node_1047422598 phases=1 bus1=node_1047422598.4 bus2=node_1047422598.0 R=0.5 X=0
New Reactor.NEUTRO_node_1047625165 phases=1 bus1=node_1047625165.4 bus2=node_1047625165.0 R=0.5 X=0
New Reactor.NEUTRO_node_1047989708 phases=1 bus1=node_1047989708.4 bus2=node_1047989708.0 R=0.5 X=0
New Reactor.NEUTRO_node_1049728571 phases=1 bus1=node_1049728571.4 bus2=node_1049728571.0 R=0.5 X=0
New Reactor.NEUTRO_node_1049891797 phases=1 bus1=node_1049891797.4 bus2=node_1049891797.0 R=0.5 X=0
New Reactor.NEUTRO_node_1050166747 phases=1 bus1=node_1050166747.4 bus2=node_1050166747.0 R=0.5 X=0
New Reactor.NEUTRO_node_1050441462 phases=1 bus1=node_1050441462.4 bus2=node_1050441462.0 R=0.5 X=0
New Reactor.NEUTRO_node_1050501573 phases=1 bus1=node_1050501573.4 bus2=node_1050501573.0 R=0.5 X=0
New Reactor.NEUTRO_node_1050582931 phases=1 bus1=node_1050582931.4 bus2=node_1050582931.0 R=0.5 X=0
New Reactor.NEUTRO_node_1050587329 phases=1 bus1=node_1050587329.4 bus2=node_1050587329.0 R=0.5 X=0
New Reactor.NEUTRO_node_1051149796 phases=1 bus1=node_1051149796.4 bus2=node_1051149796.0 R=0.5 X=0
New Reactor.NEUTRO_node_1051149867 phases=1 bus1=node_1051149867.4 bus2=node_1051149867.0 R=0.5 X=0
New Reactor.NEUTRO_node_1052528262 phases=1 bus1=node_1052528262.4 bus2=node_1052528262.0 R=0.5 X=0
New Reactor.NEUTRO_node_1053198161 phases=1 bus1=node_1053198161.4 bus2=node_1053198161.0 R=0.5 X=0
New Reactor.NEUTRO_node_1053253900 phases=1 bus1=node_1053253900.4 bus2=node_1053253900.0 R=0.5 X=0
New Reactor.NEUTRO_node_1054348963 phases=1 bus1=node_1054348963.4 bus2=node_1054348963.0 R=0.5 X=0
New Reactor.NEUTRO_node_1054348998 phases=1 bus1=node_1054348998.4 bus2=node_1054348998.0 R=0.5 X=0
New Reactor.NEUTRO_node_1054417526 phases=1 bus1=node_1054417526.4 bus2=node_1054417526.0 R=0.5 X=0
New Reactor.NEUTRO_node_1054516254 phases=1 bus1=node_1054516254.4 bus2=node_1054516254.0 R=0.5 X=0
New Reactor.NEUTRO_node_1056044940 phases=1 bus1=node_1056044940.4 bus2=node_1056044940.0 R=0.5 X=0
New Reactor.NEUTRO_node_1070434189 phases=1 bus1=node_1070434189.4 bus2=node_1070434189.0 R=0.5 X=0
New Reactor.NEUTRO_node_1073929488 phases=1 bus1=node_1073929488.4 bus2=node_1073929488.0 R=0.5 X=0
New Reactor.NEUTRO_node_1091651218 phases=1 bus1=node_1091651218.4 bus2=node_1091651218.0 R=0.5 X=0
New Reactor.NEUTRO_node_1099435775 phases=1 bus1=node_1099435775.4 bus2=node_1099435775.0 R=0.5 X=0
New Reactor.NEUTRO_node_1099882405 phases=1 bus1=node_1099882405.4 bus2=node_1099882405.0 R=0.5 X=0
New Reactor.NEUTRO_node_1100449222 phases=1 bus1=node_1100449222.4 bus2=node_1100449222.0 R=0.5 X=0
New Reactor.NEUTRO_node_1103777269 phases=1 bus1=node_1103777269.4 bus2=node_1103777269.0 R=0.5 X=0
New Reactor.NEUTRO_node_1105090983 phases=1 bus1=node_1105090983.4 bus2=node_1105090983.0 R=0.5 X=0
New Reactor.NEUTRO_node_1108264419 phases=1 bus1=node_1108264419.4 bus2=node_1108264419.0 R=0.5 X=0
New Reactor.NEUTRO_node_1109724361 phases=1 bus1=node_1109724361.4 bus2=node_1109724361.0 R=0.5 X=0
New Reactor.NEUTRO_node_1110759318 phases=1 bus1=node_1110759318.4 bus2=node_1110759318.0 R=0.5 X=0
New Reactor.NEUTRO_node_1112051584 phases=1 bus1=node_1112051584.4 bus2=node_1112051584.0 R=0.5 X=0
New Reactor.NEUTRO_node_1123241797 phases=1 bus1=node_1123241797.4 bus2=node_1123241797.0 R=0.5 X=0
New Reactor.NEUTRO_node_1126402133 phases=1 bus1=node_1126402133.4 bus2=node_1126402133.0 R=0.5 X=0
New Reactor.NEUTRO_node_1126651201 phases=1 bus1=node_1126651201.4 bus2=node_1126651201.0 R=0.5 X=0
New Reactor.NEUTRO_node_1128085582 phases=1 bus1=node_1128085582.4 bus2=node_1128085582.0 R=0.5 X=0
New Reactor.NEUTRO_node_1128222914 phases=1 bus1=node_1128222914.4 bus2=node_1128222914.0 R=0.5 X=0
New Reactor.NEUTRO_node_1133272719 phases=1 bus1=node_1133272719.4 bus2=node_1133272719.0 R=0.5 X=0
New Reactor.NEUTRO_node_1135539956 phases=1 bus1=node_1135539956.4 bus2=node_1135539956.0 R=0.5 X=0
New Reactor.NEUTRO_node_1143029409 phases=1 bus1=node_1143029409.4 bus2=node_1143029409.0 R=0.5 X=0
New Reactor.NEUTRO_node_1145222771 phases=1 bus1=node_1145222771.4 bus2=node_1145222771.0 R=0.5 X=0
New Reactor.NEUTRO_node_1147692034 phases=1 bus1=node_1147692034.4 bus2=node_1147692034.0 R=0.5 X=0
New Reactor.NEUTRO_node_1147889354 phases=1 bus1=node_1147889354.4 bus2=node_1147889354.0 R=0.5 X=0
New Reactor.NEUTRO_node_1148400424 phases=1 bus1=node_1148400424.4 bus2=node_1148400424.0 R=0.5 X=0
New Reactor.NEUTRO_node_1152827452 phases=1 bus1=node_1152827452.4 bus2=node_1152827452.0 R=0.5 X=0
New Reactor.NEUTRO_node_1155592811 phases=1 bus1=node_1155592811.4 bus2=node_1155592811.0 R=0.5 X=0
New Reactor.NEUTRO_node_1155803179 phases=1 bus1=node_1155803179.4 bus2=node_1155803179.0 R=0.5 X=0
New Reactor.NEUTRO_node_1156812765 phases=1 bus1=node_1156812765.4 bus2=node_1156812765.0 R=0.5 X=0
New Reactor.NEUTRO_node_1157623973 phases=1 bus1=node_1157623973.4 bus2=node_1157623973.0 R=0.5 X=0
New Reactor.NEUTRO_node_1157903090 phases=1 bus1=node_1157903090.4 bus2=node_1157903090.0 R=0.5 X=0
New Reactor.NEUTRO_node_1158396911 phases=1 bus1=node_1158396911.4 bus2=node_1158396911.0 R=0.5 X=0
New Reactor.NEUTRO_node_1160002815 phases=1 bus1=node_1160002815.4 bus2=node_1160002815.0 R=0.5 X=0
New Reactor.NEUTRO_node_1161239490 phases=1 bus1=node_1161239490.4 bus2=node_1161239490.0 R=0.5 X=0
New Reactor.NEUTRO_node_1164392047 phases=1 bus1=node_1164392047.4 bus2=node_1164392047.0 R=0.5 X=0
New Reactor.NEUTRO_node_1164416977 phases=1 bus1=node_1164416977.4 bus2=node_1164416977.0 R=0.5 X=0
New Reactor.NEUTRO_node_1165297235 phases=1 bus1=node_1165297235.4 bus2=node_1165297235.0 R=0.5 X=0
New Reactor.NEUTRO_node_1165732281 phases=1 bus1=node_1165732281.4 bus2=node_1165732281.0 R=0.5 X=0
New Reactor.NEUTRO_node_1167255304 phases=1 bus1=node_1167255304.4 bus2=node_1167255304.0 R=0.5 X=0
New Reactor.NEUTRO_node_1168178568 phases=1 bus1=node_1168178568.4 bus2=node_1168178568.0 R=0.5 X=0
New Reactor.NEUTRO_node_1168418944 phases=1 bus1=node_1168418944.4 bus2=node_1168418944.0 R=0.5 X=0
New Reactor.NEUTRO_node_1169093076 phases=1 bus1=node_1169093076.4 bus2=node_1169093076.0 R=0.5 X=0
New Reactor.NEUTRO_node_1172090242 phases=1 bus1=node_1172090242.4 bus2=node_1172090242.0 R=0.5 X=0
New Reactor.NEUTRO_node_1172983393 phases=1 bus1=node_1172983393.4 bus2=node_1172983393.0 R=0.5 X=0
New Reactor.NEUTRO_node_1172983471 phases=1 bus1=node_1172983471.4 bus2=node_1172983471.0 R=0.5 X=0
New Reactor.NEUTRO_node_1173232653 phases=1 bus1=node_1173232653.4 bus2=node_1173232653.0 R=0.5 X=0
New Reactor.NEUTRO_node_1173868192 phases=1 bus1=node_1173868192.4 bus2=node_1173868192.0 R=0.5 X=0
New Reactor.NEUTRO_node_1174112792 phases=1 bus1=node_1174112792.4 bus2=node_1174112792.0 R=0.5 X=0
New Reactor.NEUTRO_node_1174112811 phases=1 bus1=node_1174112811.4 bus2=node_1174112811.0 R=0.5 X=0
New Reactor.NEUTRO_node_1174155681 phases=1 bus1=node_1174155681.4 bus2=node_1174155681.0 R=0.5 X=0
New Reactor.NEUTRO_node_1176010747 phases=1 bus1=node_1176010747.4 bus2=node_1176010747.0 R=0.5 X=0
New Reactor.NEUTRO_node_1177573744 phases=1 bus1=node_1177573744.4 bus2=node_1177573744.0 R=0.5 X=0
New Reactor.NEUTRO_node_1178007948 phases=1 bus1=node_1178007948.4 bus2=node_1178007948.0 R=0.5 X=0
New Reactor.NEUTRO_node_1181146587 phases=1 bus1=node_1181146587.4 bus2=node_1181146587.0 R=0.5 X=0
New Reactor.NEUTRO_node_1181237019 phases=1 bus1=node_1181237019.4 bus2=node_1181237019.0 R=0.5 X=0
New Reactor.NEUTRO_node_1183396451 phases=1 bus1=node_1183396451.4 bus2=node_1183396451.0 R=0.5 X=0
New Reactor.NEUTRO_node_1183448036 phases=1 bus1=node_1183448036.4 bus2=node_1183448036.0 R=0.5 X=0
New Reactor.NEUTRO_node_1183959069 phases=1 bus1=node_1183959069.4 bus2=node_1183959069.0 R=0.5 X=0
New Reactor.NEUTRO_node_1184152127 phases=1 bus1=node_1184152127.4 bus2=node_1184152127.0 R=0.5 X=0
New Reactor.NEUTRO_node_1184212247 phases=1 bus1=node_1184212247.4 bus2=node_1184212247.0 R=0.5 X=0
New Reactor.NEUTRO_node_1184212248 phases=1 bus1=node_1184212248.4 bus2=node_1184212248.0 R=0.5 X=0
New Reactor.NEUTRO_node_1187441451 phases=1 bus1=node_1187441451.4 bus2=node_1187441451.0 R=0.5 X=0
New Reactor.NEUTRO_node_1195561363 phases=1 bus1=node_1195561363.4 bus2=node_1195561363.0 R=0.5 X=0
New Reactor.NEUTRO_node_1198713133 phases=1 bus1=node_1198713133.4 bus2=node_1198713133.0 R=0.5 X=0
New Reactor.NEUTRO_node_1207099308 phases=1 bus1=node_1207099308.4 bus2=node_1207099308.0 R=0.5 X=0
New Reactor.NEUTRO_node_1207863635 phases=1 bus1=node_1207863635.4 bus2=node_1207863635.0 R=0.5 X=0
New Reactor.NEUTRO_node_1209474068 phases=1 bus1=node_1209474068.4 bus2=node_1209474068.0 R=0.5 X=0
New Reactor.NEUTRO_node_1212084650 phases=1 bus1=node_1212084650.4 bus2=node_1212084650.0 R=0.5 X=0
New Reactor.NEUTRO_node_1212480607 phases=1 bus1=node_1212480607.4 bus2=node_1212480607.0 R=0.5 X=0
New Reactor.NEUTRO_node_1213312794 phases=1 bus1=node_1213312794.4 bus2=node_1213312794.0 R=0.5 X=0
New Reactor.NEUTRO_node_1213450088 phases=1 bus1=node_1213450088.4 bus2=node_1213450088.0 R=0.5 X=0
New Reactor.NEUTRO_node_1213450144 phases=1 bus1=node_1213450144.4 bus2=node_1213450144.0 R=0.5 X=0
New Reactor.NEUTRO_node_1214124389 phases=1 bus1=node_1214124389.4 bus2=node_1214124389.0 R=0.5 X=0
New Reactor.NEUTRO_node_1214124446 phases=1 bus1=node_1214124446.4 bus2=node_1214124446.0 R=0.5 X=0
New Reactor.NEUTRO_node_1214618538 phases=1 bus1=node_1214618538.4 bus2=node_1214618538.0 R=0.5 X=0
New Reactor.NEUTRO_node_1215097690 phases=1 bus1=node_1215097690.4 bus2=node_1215097690.0 R=0.5 X=0
New Reactor.NEUTRO_node_1216444318 phases=1 bus1=node_1216444318.4 bus2=node_1216444318.0 R=0.5 X=0
New Reactor.NEUTRO_node_1217151518 phases=1 bus1=node_1217151518.4 bus2=node_1217151518.0 R=0.5 X=0
New Reactor.NEUTRO_node_1217559477 phases=1 bus1=node_1217559477.4 bus2=node_1217559477.0 R=0.5 X=0
New Reactor.NEUTRO_node_1218512949 phases=1 bus1=node_1218512949.4 bus2=node_1218512949.0 R=0.5 X=0
New Reactor.NEUTRO_node_1219032360 phases=1 bus1=node_1219032360.4 bus2=node_1219032360.0 R=0.5 X=0
New Reactor.NEUTRO_node_1219517613 phases=1 bus1=node_1219517613.4 bus2=node_1219517613.0 R=0.5 X=0
New Reactor.NEUTRO_node_1219801461 phases=1 bus1=node_1219801461.4 bus2=node_1219801461.0 R=0.5 X=0
New Reactor.NEUTRO_node_1219955870 phases=1 bus1=node_1219955870.4 bus2=node_1219955870.0 R=0.5 X=0
New Reactor.NEUTRO_node_1220129432 phases=1 bus1=node_1220129432.4 bus2=node_1220129432.0 R=0.5 X=0
New Reactor.NEUTRO_node_1220895961 phases=1 bus1=node_1220895961.4 bus2=node_1220895961.0 R=0.5 X=0
New Reactor.NEUTRO_node_1222073575 phases=1 bus1=node_1222073575.4 bus2=node_1222073575.0 R=0.5 X=0
New Reactor.NEUTRO_node_1222117236 phases=1 bus1=node_1222117236.4 bus2=node_1222117236.0 R=0.5 X=0
New Reactor.NEUTRO_node_1224129464 phases=1 bus1=node_1224129464.4 bus2=node_1224129464.0 R=0.5 X=0
New Reactor.NEUTRO_node_1224198559 phases=1 bus1=node_1224198559.4 bus2=node_1224198559.0 R=0.5 X=0
New Reactor.NEUTRO_node_1224236760 phases=1 bus1=node_1224236760.4 bus2=node_1224236760.0 R=0.5 X=0
New Reactor.NEUTRO_node_1224885173 phases=1 bus1=node_1224885173.4 bus2=node_1224885173.0 R=0.5 X=0
New Reactor.NEUTRO_node_1225013929 phases=1 bus1=node_1225013929.4 bus2=node_1225013929.0 R=0.5 X=0
New Reactor.NEUTRO_node_1225159873 phases=1 bus1=node_1225159873.4 bus2=node_1225159873.0 R=0.5 X=0
New Reactor.NEUTRO_node_1225821098 phases=1 bus1=node_1225821098.4 bus2=node_1225821098.0 R=0.5 X=0
New Reactor.NEUTRO_node_1225821236 phases=1 bus1=node_1225821236.4 bus2=node_1225821236.0 R=0.5 X=0
New Reactor.NEUTRO_node_1226761508 phases=1 bus1=node_1226761508.4 bus2=node_1226761508.0 R=0.5 X=0
New Reactor.NEUTRO_node_1227560492 phases=1 bus1=node_1227560492.4 bus2=node_1227560492.0 R=0.5 X=0
New Reactor.NEUTRO_node_1227646141 phases=1 bus1=node_1227646141.4 bus2=node_1227646141.0 R=0.5 X=0
New Reactor.NEUTRO_node_1228096894 phases=1 bus1=node_1228096894.4 bus2=node_1228096894.0 R=0.5 X=0
New Reactor.NEUTRO_node_1228458193 phases=1 bus1=node_1228458193.4 bus2=node_1228458193.0 R=0.5 X=0
New Reactor.NEUTRO_node_1228788669 phases=1 bus1=node_1228788669.4 bus2=node_1228788669.0 R=0.5 X=0
New Reactor.NEUTRO_node_1229290829 phases=1 bus1=node_1229290829.4 bus2=node_1229290829.0 R=0.5 X=0
New Reactor.NEUTRO_node_1229553146 phases=1 bus1=node_1229553146.4 bus2=node_1229553146.0 R=0.5 X=0
New Reactor.NEUTRO_node_1229849076 phases=1 bus1=node_1229849076.4 bus2=node_1229849076.0 R=0.5 X=0
New Reactor.NEUTRO_node_1230288857 phases=1 bus1=node_1230288857.4 bus2=node_1230288857.0 R=0.5 X=0
New Reactor.NEUTRO_node_1230506271 phases=1 bus1=node_1230506271.4 bus2=node_1230506271.0 R=0.5 X=0
New Reactor.NEUTRO_node_1231300379 phases=1 bus1=node_1231300379.4 bus2=node_1231300379.0 R=0.5 X=0
New Reactor.NEUTRO_node_1232524200 phases=1 bus1=node_1232524200.4 bus2=node_1232524200.0 R=0.5 X=0
New Reactor.NEUTRO_node_1233099504 phases=1 bus1=node_1233099504.4 bus2=node_1233099504.0 R=0.5 X=0
New Reactor.NEUTRO_node_1234731186 phases=1 bus1=node_1234731186.4 bus2=node_1234731186.0 R=0.5 X=0
New Reactor.NEUTRO_node_1237114563 phases=1 bus1=node_1237114563.4 bus2=node_1237114563.0 R=0.5 X=0
New Reactor.NEUTRO_node_1237114605 phases=1 bus1=node_1237114605.4 bus2=node_1237114605.0 R=0.5 X=0
New Reactor.NEUTRO_node_1239103014 phases=1 bus1=node_1239103014.4 bus2=node_1239103014.0 R=0.5 X=0
New Reactor.NEUTRO_node_1242714211 phases=1 bus1=node_1242714211.4 bus2=node_1242714211.0 R=0.5 X=0
New Reactor.NEUTRO_node_1242743769 phases=1 bus1=node_1242743769.4 bus2=node_1242743769.0 R=0.5 X=0
New Reactor.NEUTRO_node_1242744109 phases=1 bus1=node_1242744109.4 bus2=node_1242744109.0 R=0.5 X=0
New Reactor.NEUTRO_node_1243392164 phases=1 bus1=node_1243392164.4 bus2=node_1243392164.0 R=0.5 X=0
New Reactor.NEUTRO_node_1246801571 phases=1 bus1=node_1246801571.4 bus2=node_1246801571.0 R=0.5 X=0
New Reactor.NEUTRO_node_1249713053 phases=1 bus1=node_1249713053.4 bus2=node_1249713053.0 R=0.5 X=0
New Reactor.NEUTRO_node_1255209390 phases=1 bus1=node_1255209390.4 bus2=node_1255209390.0 R=0.5 X=0
New Reactor.NEUTRO_node_1255209426 phases=1 bus1=node_1255209426.4 bus2=node_1255209426.0 R=0.5 X=0
New Reactor.NEUTRO_node_1256707937 phases=1 bus1=node_1256707937.4 bus2=node_1256707937.0 R=0.5 X=0
New Reactor.NEUTRO_node_1261792325 phases=1 bus1=node_1261792325.4 bus2=node_1261792325.0 R=0.5 X=0
New Reactor.NEUTRO_node_1264432896 phases=1 bus1=node_1264432896.4 bus2=node_1264432896.0 R=0.5 X=0
New Reactor.NEUTRO_node_1264566015 phases=1 bus1=node_1264566015.4 bus2=node_1264566015.0 R=0.5 X=0
New Reactor.NEUTRO_node_1264630375 phases=1 bus1=node_1264630375.4 bus2=node_1264630375.0 R=0.5 X=0
New Reactor.NEUTRO_node_1264630697 phases=1 bus1=node_1264630697.4 bus2=node_1264630697.0 R=0.5 X=0
New Reactor.NEUTRO_node_1264631770 phases=1 bus1=node_1264631770.4 bus2=node_1264631770.0 R=0.5 X=0
New Reactor.NEUTRO_node_1264634507 phases=1 bus1=node_1264634507.4 bus2=node_1264634507.0 R=0.5 X=0
New Reactor.NEUTRO_node_1265111727 phases=1 bus1=node_1265111727.4 bus2=node_1265111727.0 R=0.5 X=0
New Reactor.NEUTRO_node_1265111739 phases=1 bus1=node_1265111739.4 bus2=node_1265111739.0 R=0.5 X=0
New Reactor.NEUTRO_node_1266949086 phases=1 bus1=node_1266949086.4 bus2=node_1266949086.0 R=0.5 X=0
New Reactor.NEUTRO_node_1269375305 phases=1 bus1=node_1269375305.4 bus2=node_1269375305.0 R=0.5 X=0
New Reactor.NEUTRO_node_1269866668 phases=1 bus1=node_1269866668.4 bus2=node_1269866668.0 R=0.5 X=0
New Reactor.NEUTRO_node_1269866734 phases=1 bus1=node_1269866734.4 bus2=node_1269866734.0 R=0.5 X=0
New Reactor.NEUTRO_node_1273227764 phases=1 bus1=node_1273227764.4 bus2=node_1273227764.0 R=0.5 X=0
New Reactor.NEUTRO_node_1273227777 phases=1 bus1=node_1273227777.4 bus2=node_1273227777.0 R=0.5 X=0
New Reactor.NEUTRO_node_1273330654 phases=1 bus1=node_1273330654.4 bus2=node_1273330654.0 R=0.5 X=0
New Reactor.NEUTRO_node_1274781453 phases=1 bus1=node_1274781453.4 bus2=node_1274781453.0 R=0.5 X=0
...
